13

C       6.620392233821952      3.909510655505283      4.905064957974332
C       5.111009776175500      3.900216078442725      4.868340235055483
O       4.408381675978826      3.191995421735093      5.537835107823391
C       4.539682115796735      4.949870365909098      3.897476947172682
O       5.182624449073919      5.397205175742461      2.979796559545088
O       3.286388973232345      5.282530995128419      4.192060256210331
C       7.071010129737777      5.258308383262914      5.426320500945237
O       6.311410620933914      6.140748110078066      5.748704894564806
O       8.403856641290695      5.369370820848554      5.490784138216429
H       7.033771633277164      3.774101979178385      3.898230443971965
H       6.982008007535976      3.106381152530991      5.551320579576736
H       3.017342093386688      5.955330618163936      3.543899623477274
H       8.586620258541675      6.264628711648322      5.822365973061003
