
     RDKit          3D

 13 12  0  0  0  0  0  0  0  0999 V2000
    6.6204    3.9095    4.9051 C   0  0  0  0  0  0  0  0  0  0  0  0
    5.1110    3.9002    4.8683 C   0  0  0  0  0  0  0  0  0  0  0  0
    4.4084    3.1920    5.5378 O   0  0  0  0  0  0  0  0  0  0  0  0
    4.5397    4.9499    3.8975 C   0  0  0  0  0  0  0  0  0  0  0  0
    5.1826    5.3972    2.9798 O   0  0  0  0  0  0  0  0  0  0  0  0
    3.2864    5.2825    4.1921 O   0  0  0  0  0  0  0  0  0  0  0  0
    7.0710    5.2583    5.4263 C   0  0  0  0  0  0  0  0  0  0  0  0
    6.3114    6.1407    5.7487 O   0  0  0  0  0  0  0  0  0  0  0  0
    8.4039    5.3694    5.4908 O   0  0  0  0  0  0  0  0  0  0  0  0
    7.0338    3.7741    3.8982 H   0  0  0  0  0  0  0  0  0  0  0  0
    6.9820    3.1064    5.5513 H   0  0  0  0  0  0  0  0  0  0  0  0
    3.0173    5.9553    3.5439 H   0  0  0  0  0  0  0  0  0  0  0  0
    8.5866    6.2646    5.8224 H   0  0  0  0  0  0  0  0  0  0  0  0
  1  2  1  0
  2  3  2  0
  2  4  1  0
  4  5  2  0
  4  6  1  0
  1  7  1  0
  7  8  2  0
  7  9  1  0
  1 10  1  0
  1 11  1  0
  6 12  1  0
  9 13  1  0
M  END
