=
     RDKit          3D

 15 14  0  0  1  0  0  0  0  0999 V2000
    9.8130   18.7520    6.7560 C   0  0  2  0  0  0  0  0  0  0  0  0
    9.9620   19.4990    5.9650 H   0  0  0  0  0  0  0  0  0  0  0  0
    8.7010   17.8010    6.3510 C   0  0  1  0  0  0  0  0  0  0  0  0
    7.9900   18.3000    5.6880 H   0  0  0  0  0  0  0  0  0  0  0  0
    9.1420   16.9780    5.7760 H   0  0  0  0  0  0  0  0  0  0  0  0
    7.9330   17.2060    7.5050 C   0  0  0  0  0  0  0  0  0  0  0  0
    8.4230   16.7780    8.5190 O   0  0  0  0  0  0  0  0  0  0  0  0
    6.5990   17.2520    7.3010 O   0  0  0  0  0  0  0  0  0  0  0  0
    6.3940   16.5080    6.7100 H   0  0  0  0  0  0  0  0  0  0  0  0
   11.1290   18.0000    6.9280 C   0  0  0  0  0  0  0  0  0  0  0  0
   11.9300   17.7880    6.0520 O   0  0  0  0  0  0  0  0  0  0  0  0
   11.3070   17.5810    8.1950 O   0  0  0  0  0  0  0  0  0  0  0  0
   10.5870   16.9520    8.3760 H   0  0  0  0  0  0  0  0  0  0  0  0
    9.4300   19.3520    7.9730 O   0  0  0  0  0  0  0  0  0  0  0  0
    8.6940   19.9490    7.7820 H   0  0  0  0  0  0  0  0  0  0  0  0
  1  2  1  6
  1 10  1  0
  1 14  1  0
  3  1  1  0
  3  6  1  0
  3  4  1  6
  5  3  1  0
  6  7  2  0
  8  6  1  0
  9  8  1  0
 10 12  1  0
 11 10  2  0
 12 13  1  0
 15 14  1  0
M  END
