=
     RDKit          3D

 13 12  0  0  0  0  0  0  0  0999 V2000
    9.4800   18.5240    6.9540 C   0  0  1  0  0  0  0  0  0  0  0  0
    9.2810   18.8720    5.9390 H   0  0  0  0  0  0  0  0  0  0  0  0
    9.4560   19.3840    7.6350 H   0  0  0  0  0  0  0  0  0  0  0  0
    8.4300   17.5050    7.3390 C   0  0  0  0  0  0  0  0  0  0  0  0
    8.4750   16.8320    8.3340 O   0  0  0  0  0  0  0  0  0  0  0  0
    7.2220   17.3890    6.3960 C   0  0  0  0  0  0  0  0  0  0  0  0
    6.9220   16.3950    5.7980 O   0  0  0  0  0  0  0  0  0  0  0  0
    6.5650   18.5590    6.3220 O   0  0  0  0  0  0  0  0  0  0  0  0
    5.6170   18.3480    6.3340 H   0  0  0  0  0  0  0  0  0  0  0  0
   10.8530   17.8890    7.0370 C   0  0  0  0  0  0  0  0  0  0  0  0
   11.5760   17.7220    6.0840 O   0  0  0  0  0  0  0  0  0  0  0  0
   11.1820   17.5320    8.2870 O   0  0  0  0  0  0  0  0  0  0  0  0
   10.7540   18.1760    8.8760 H   0  0  0  0  0  0  0  0  0  0  0  0
  1 10  1  0
  1  4  1  0
  1  3  1  1
  2  1  1  0
  4  5  2  0
  6  4  1  0
  7  6  2  0
  8  9  1  0
  8  6  1  0
 10 12  1  0
 11 10  2  0
 12 13  1  0
M  END
